/*--------------------------------*- C++ -*----------------------------------*\
| =========                 |                                                 |
| \\      /  F ield         | OpenFOAM: The Open Source CFD Toolbox           |
|  \\    /   O peration     | Version:  v2406                                 |
|   \\  /    A nd           | Website:  www.openfoam.com                      |
|    \\/     M anipulation  |                                                 |
\*---------------------------------------------------------------------------*/
FoamFile
{
    version     2.0;
    format      ascii;
    class       volScalarField;
    object      k;
}
// * * * * * * * * * * * * * * * * * * * * * * * * * * * * * * * * * * * * * //

#include        "include/initialConditions"

dimensions      [0 2 -2 0 0 0 0];

internalField   uniform $turbulentKE;

boundaryField
{
    #includeEtc "caseDicts/setConstraintTypes"

    //- Define inlet conditions
    #include "include/fixedInlet"

    outlet
    {
        type            inletOutlet;
        inletValue      $internalField;
        value           $internalField;
    }

    ground
    {
        type            kqRWallFunction;
        value           $internalField;
    }

    SEDAN_SPOILER
    {
        type            kqRWallFunction;
        value           $internalField;
    }

    SEDAN_UPPER_BODY
    {
        type            kqRWallFunction;
        value           $internalField;
    }

    SEDAN_LOWER_BODY
    {
        type            kqRWallFunction;
        value           $internalField;
    }
 
    SEDAN_FRONT_WHEEL
    {
        type            kqRWallFunction;
        value           $internalField;
    }

    SEDAN_REAR_WHEEL
    {
        type            kqRWallFunction;
        value           $internalField;
    }

    symmetry
    {
        type            symmetry;
    }


    #include "include/BackUpperPatches"
}


// ************************************************************************* //
